
 *******************************************************************************

         NASA-GLENN CHEMICAL EQUILIBRIUM PROGRAM CEA2, MAY 21, 2004
                   BY  BONNIE MCBRIDE AND SANFORD GORDON
      REFS: NASA RP-1311, PART I, 1994 AND NASA RP-1311, PART II, 1996

 *******************************************************************************



 problem   case=methalox2 o/f=3.16,
       rocket  equilibrium  frozen  nfz=2  tcest,k=3800
   p,bar=40,
   sub,ae/at=12,11,9,7,5,4,3,2.5,2,1.7,1.5,1.3,1.1,
   sup,ae/at=1.1,1.3,1.5,2,3,4,5,7,9,11,13,15
 react
   fuel=CH4(L)
   oxid=O2(L)
 output  transport
     plot p t rho aeat vis pran pranfz
 end

 OPTIONS: TP=F  HP=F  SP=F  TV=F  UV=F  SV=F  DETN=F  SHOCK=F  REFL=F  INCD=F
 RKT=T  FROZ=T  EQL=T  IONS=F  SIUNIT=T  DEBUGF=F  SHKDBG=F  DETDBG=F  TRNSPT=T

 TRACE= 0.00E+00  S/R= 0.000000E+00  H/R= 0.000000E+00  U/R= 0.000000E+00

 Pc,BAR =    40.000000

 Pc/P =

 SUBSONIC AREA RATIOS =    12.0000    11.0000     9.0000     7.0000     5.0000
     4.0000     3.0000     2.5000     2.0000     1.7000
     1.5000     1.3000     1.1000

 SUPERSONIC AREA RATIOS =     1.1000     1.3000     1.5000     2.0000     3.0000
     4.0000     5.0000     7.0000     9.0000    11.0000
    13.0000    15.0000    10.0000

 NFZ=  2  Mdot/Ac= 0.000000E+00  Ac/At= 0.000000E+00

 WARNING!!  AMOUNT MISSING FOR REACTANT  1.
 PROGRAM SETS WEIGHT PERCENT = 100. (REACT)

 WARNING!!  AMOUNT MISSING FOR REACTANT  2.
 PROGRAM SETS WEIGHT PERCENT = 100. (REACT)

    REACTANT          WT.FRAC   (ENERGY/R),K   TEMP,K  DENSITY
        EXPLODED FORMULA
 F: CH4(L)           1.000000  -0.107322E+05   111.64  0.0000
          C  1.00000  H  4.00000
 O: O2(L)            1.000000  -0.156101E+04    90.17  0.0000
          O  2.00000

  SPECIES BEING CONSIDERED IN THIS SYSTEM
 (CONDENSED PHASE MAY HAVE NAME LISTED SEVERAL TIMES)
  LAST thermo.inp UPDATE:    9/09/04

  g 7/97  *C               tpis79  *CH              g 4/02  CH2            
  g 4/02  CH3              g11/00  CH2OH            g 7/00  CH3O           
  g 8/99  CH4              g 7/00  CH3OH            srd 01  CH3OOH         
  tpis79  *CO              g 9/99  *CO2             tpis91  COOH           
  tpis91  *C2              g 6/01  C2H              g 1/91  C2H2,acetylene 
  g 5/01  C2H2,vinylidene  g 4/02  CH2CO,ketene     g 3/02  O(CH)2O        
  srd 01  HO(CO)2OH        g 7/01  C2H3,vinyl       g 6/96  CH3CO,acetyl   
  g 1/00  C2H4             g 8/88  C2H4O,ethylen-o  g 8/88  CH3CHO,ethanal 
  g 6/00  CH3COOH          srd 01  OHCH2COOH        g 7/00  C2H5           
  g 7/00  C2H6             g 8/88  C2H5OH           g 7/00  CH3OCH3        
  srd 01  CH3O2CH3         g 8/00  C2O              tpis79  *C3            
  n 4/98  C3H3,1-propynl   n 4/98  C3H3,2-propynl   g 2/00  C3H4,allene    
  g 1/00  C3H4,propyne     g 5/90  C3H4,cyclo-      g 3/01  C3H5,allyl     
  g 2/00  C3H6,propylene   g 1/00  C3H6,cyclo-      g 6/01  C3H6O,propylox 
  g 6/97  C3H6O,acetone    g 1/02  C3H6O,propanal   g 7/01  C3H7,n-propyl  
  g 9/85  C3H7,i-propyl    g 2/00  C3H8             g 2/00  C3H8O,1propanol
  g 2/00  C3H8O,2propanol  g 7/88  C3O2             g tpis  *C4            
  g 7/01  C4H2,butadiyne   g 8/00  C4H4,1,3-cyclo-  n10/92  C4H6,butadiene 
  n10/93  C4H6,1butyne     n10/93  C4H6,2butyne     g 8/00  C4H6,cyclo-    
  n 4/88  C4H8,1-butene    n 4/88  C4H8,cis2-buten  n 4/88  C4H8,tr2-butene
  n 4/88  C4H8,isobutene   g 8/00  C4H8,cyclo-      g10/00  (CH3COOH)2     
  n10/84  C4H9,n-butyl     n10/84  C4H9,i-butyl     g 1/93  C4H9,s-butyl   
  g 1/93  C4H9,t-butyl     g12/00  C4H10,n-butane   g 8/00  C4H10,isobutane
  g 8/00  *C5              g 5/90  C5H6,1,3cyclo-   g 1/93  C5H8,cyclo-    
  n 4/87  C5H10,1-pentene  g 2/01  C5H10,cyclo-     n10/84  C5H11,pentyl   
  g 1/93  C5H11,t-pentyl   n10/85  C5H12,n-pentane  n10/85  C5H12,i-pentane
  n10/85  CH3C(CH3)2CH3    g 2/93  C6H2             g11/00  C6H5,phenyl    
  g 8/00  C6H5O,phenoxy    g 8/00  C6H6             g 8/00  C6H5OH,phenol  
  g 1/93  C6H10,cyclo-     n 4/87  C6H12,1-hexene   g 6/90  C6H12,cyclo-   
  n10/83  C6H13,n-hexyl    g 6/01  C6H14,n-hexane   g 7/01  C7H7,benzyl    
  g 1/93  C7H8             g12/00  C7H8O,cresol-mx  n 4/87  C7H14,1-heptene
  n10/83  C7H15,n-heptyl   n10/85  C7H16,n-heptane  n10/85  C7H16,2-methylh
  n 4/89  C8H8,styrene     n10/86  C8H10,ethylbenz  n 4/87  C8H16,1-octene 
  n10/83  C8H17,n-octyl    n 4/85  C8H18,n-octane   n 4/85  C8H18,isooctane
  n10/83  C9H19,n-nonyl    g 3/01  C10H8,naphthale  n10/83  C10H21,n-decyl 
  g 8/00  C12H9,o-bipheny  g 8/00  C12H10,biphenyl  g 6/97  *H             
  g 1/01  HCO              g 6/01  HCCO             g 4/02  HO2            
  tpis78  *H2              g 5/01  HCHO,formaldehy  g 6/01  HCOOH          
  g 8/89  H2O              g 6/99  H2O2             g 6/01  (HCOOH)2       
  g 5/97  *O               g 4/02  *OH              tpis89  *O2            
  g 8/01  O3               n 4/83  C(gr)            n 4/83  C(gr)          
  n 4/83  C(gr)            g11/99  H2O(cr)          g 8/01  H2O(L)         
  g 8/01  H2O(L)         

 SPECIES WITH TRANSPORT PROPERTIES

        PURE SPECIES

  C                 CH4               CH3OH             CO              
  CO2               C2H2,acetylene  
  C2H4              C2H6              C2H5OH            H               
  H2                H2O             
  O                 OH                O2              

     BINARY INTERACTIONS

     C               O               
     CH4             O2              
     CO              CO2             
     CO              O2              
     CO2             H2              
     CO2             H2O             
     CO2             O2              
     H               H2              
     H               O               
     H2              H2O             
     H2              O2              
     H2O             O2              
     O               O2              


 O/F =   3.160000

                       EFFECTIVE FUEL     EFFECTIVE OXIDANT        MIXTURE
 ENTHALPY                  h(2)/R              h(1)/R               h0/R
 (KG-MOL)(K)/KG       -0.66898729E+03     -0.48783267E+02     -0.19787077E+03

 KG-FORM.WT./KG             bi(2)               bi(1)               b0i
  *C                   0.62334580E-01      0.00000000E+00      0.14984274E-01
  *H                   0.24933832E+00      0.00000000E+00      0.59937096E-01
  *O                   0.00000000E+00      0.62502344E-01      0.47477742E-01

 POINT ITN      T            C           H           O 
   1   22    3445.368     -15.721      -9.946     -15.730
 Pinf/Pt = 1.729976
   2    4    3274.912     -16.008     -10.141     -16.021
 Pinf/Pt = 1.728633
   2    2    3275.147     -16.008     -10.140     -16.020
   3    2    3445.294     -15.722      -9.946     -15.730
   3    2    3445.161     -15.722      -9.946     -15.730
   3    2    3445.001     -15.722      -9.946     -15.731
   3    2    3444.928     -15.722      -9.946     -15.731
   3    1    3444.920     -15.722      -9.946     -15.731
   4    2    3445.279     -15.722      -9.946     -15.730
   4    2    3445.121     -15.722      -9.946     -15.730
   4    2    3444.930     -15.722      -9.946     -15.731
   4    2    3444.843     -15.722      -9.946     -15.731
   4    1    3444.834     -15.722      -9.946     -15.731
   5    2    3444.137     -15.724      -9.947     -15.732
   5    2    3444.671     -15.723      -9.946     -15.731
   5    2    3444.576     -15.723      -9.946     -15.731
   5    1    3444.569     -15.723      -9.946     -15.731
   6    2    3443.676     -15.724      -9.947     -15.733
   6    2    3444.092     -15.724      -9.947     -15.732
   6    1    3444.045     -15.724      -9.947     -15.732
   6    1    3444.044     -15.724      -9.947     -15.732
   7    2    3442.650     -15.726      -9.949     -15.734
   7    2    3442.757     -15.726      -9.948     -15.734
   7    1    3442.755     -15.726      -9.948     -15.734
   8    2    3441.509     -15.728      -9.950     -15.736
   8    2    3441.259     -15.728      -9.950     -15.736
   8    1    3441.251     -15.728      -9.950     -15.736





              THEORETICAL ROCKET PERFORMANCE ASSUMING EQUILIBRIUM

           COMPOSITION DURING EXPANSION FROM INFINITE AREA COMBUSTOR

 Pin =   580.2 PSIA
 CASE = methalox2      

             REACTANT                    WT FRACTION      ENERGY      TEMP
                                          (SEE NOTE)     KJ/KG-MOL      K  
 FUEL        CH4(L)                       1.0000000    -89233.000    111.643
 OXIDANT     O2(L)                        1.0000000    -12979.000     90.170

 O/F=    3.16000  %FUEL= 24.038462  R,EQ.RATIO= 1.262425  PHI,EQ.RATIO= 1.262425

                 CHAMBER   THROAT     EXIT     EXIT     EXIT     EXIT     EXIT     EXIT
 Pinf/P            1.0000   1.7286   1.0014   1.0017   1.0025   1.0042   1.0082   1.0130
 P, BAR            40.000   23.140   39.944   39.933   39.900   39.835   39.674   39.488
 T, K             3445.37  3275.15  3444.92  3444.83  3444.57  3444.04  3442.75  3441.25
 RHO, KG/CU M    2.9091 0 1.7930 0 2.9055 0 2.9048 0 2.9027 0 2.8985 0 2.8882 0 2.8762 0
 H, KJ/KG        -1645.20 -2374.38 -1647.13 -1647.49 -1648.63 -1650.89 -1656.44 -1662.91
 U, KJ/KG        -3020.19 -3664.96 -3021.89 -3022.22 -3023.22 -3025.22 -3030.12 -3035.84
 G, KJ/KG        -45218.6 -43795.0 -45214.9 -45214.2 -45212.0 -45207.6 -45196.8 -45184.3
 S, KJ/(KG)(K)    12.6470  12.6470  12.6470  12.6470  12.6470  12.6470  12.6470  12.6470

 M, (1/n)          20.834   21.100   20.835   20.835   20.835   20.836   20.838   20.840
 (dLV/dLP)t      -1.03419 -1.02860 -1.03418 -1.03417 -1.03416 -1.03415 -1.03411 -1.03406
 (dLV/dLT)p        1.6254   1.5517   1.6253   1.6252   1.6251   1.6249   1.6244   1.6238
 Cp, KJ/(KG)(K)    6.9919   6.6054   6.9910   6.9909   6.9904   6.9894   6.9870   6.9842
 GAMMAs            1.1320   1.1300   1.1320   1.1320   1.1320   1.1320   1.1320   1.1319
 SON VEL,M/SEC     1247.6   1207.6   1247.5   1247.5   1247.4   1247.3   1247.0   1246.6
 MACH NUMBER        0.000    1.000    0.050    0.054    0.066    0.086    0.120    0.151

 TRANSPORT PROPERTIES (GASES ONLY)
   CONDUCTIVITY IN UNITS OF MILLIWATTS/(CM)(K)

 VISC,MILLIPOISE   1.0953   1.0593   1.0952   1.0952   1.0951   1.0950   1.0948   1.0944

  WITH EQUILIBRIUM REACTIONS

 Cp, KJ/(KG)(K)    6.9919   6.6054   6.9910   6.9909   6.9904   6.9894   6.9870   6.9842
 CONDUCTIVITY     14.8204  13.3847  14.8169  14.8162  14.8142  14.8101  14.8001  14.7884
 PRANDTL NUMBER    0.5167   0.5228   0.5168   0.5168   0.5168   0.5168   0.5168   0.5169

  WITH FROZEN REACTIONS

 Cp, KJ/(KG)(K)    2.3798   2.3669   2.3798   2.3798   2.3798   2.3797   2.3796   2.3795
 CONDUCTIVITY      3.9152   3.7349   3.9148   3.9147   3.9144   3.9138   3.9125   3.9109
 PRANDTL NUMBER    0.6658   0.6713   0.6658   0.6658   0.6658   0.6658   0.6659   0.6659

 PERFORMANCE PARAMETERS

 Ae/At                      1.0000   12.000   11.000   9.0000   7.0000   5.0000   4.0000
 CSTAR, M/SEC               1847.4   1847.4   1847.4   1847.4   1847.4   1847.4   1847.4
 CF                         0.6537   0.0336   0.0367   0.0449   0.0578   0.0812   0.1019
 Ivac, M/SEC                2276.3  22201.4  20356.6  16668.1  12984.9   9311.6   7483.1
 Isp, M/SEC                 1207.6     62.1     67.8     82.9    106.7    149.9    188.2


 MOLE FRACTIONS

 *CO              0.20251  0.19786  0.20249  0.20249  0.20248  0.20247  0.20244  0.20240
 *CO2             0.10965  0.11829  0.10968  0.10968  0.10969  0.10972  0.10978  0.10986
 COOH             0.00001  0.00001  0.00001  0.00001  0.00001  0.00001  0.00001  0.00001
 *H               0.02698  0.02303  0.02697  0.02697  0.02696  0.02695  0.02692  0.02688
 HCO              0.00001  0.00001  0.00001  0.00001  0.00001  0.00001  0.00001  0.00001
 HO2              0.00006  0.00004  0.00006  0.00006  0.00006  0.00006  0.00006  0.00006
 *H2              0.10705  0.10413  0.10704  0.10704  0.10703  0.10702  0.10700  0.10697
 H2O              0.47512  0.49303  0.47517  0.47517  0.47520  0.47526  0.47539  0.47555
 H2O2             0.00001  0.00001  0.00001  0.00001  0.00001  0.00001  0.00001  0.00001
 *O               0.00785  0.00575  0.00785  0.00784  0.00784  0.00783  0.00782  0.00780
 *OH              0.05732  0.04726  0.05729  0.05728  0.05727  0.05724  0.05716  0.05707
 *O2              0.01344  0.01059  0.01343  0.01343  0.01342  0.01342  0.01339  0.01337

  * THERMODYNAMIC PROPERTIES FITTED TO 20000.K

    PRODUCTS WHICH WERE CONSIDERED BUT WHOSE MOLE FRACTIONS
    WERE LESS THAN 5.000000E-06 FOR ALL ASSIGNED CONDITIONS

 *C              *CH             CH2             CH3             CH2OH          
 CH3O            CH4             CH3OH           CH3OOH          *C2            
 C2H             C2H2,acetylene  C2H2,vinylidene CH2CO,ketene    O(CH)2O        
 HO(CO)2OH       C2H3,vinyl      CH3CO,acetyl    C2H4            C2H4O,ethylen-o
 CH3CHO,ethanal  CH3COOH         OHCH2COOH       C2H5            C2H6           
 C2H5OH          CH3OCH3         CH3O2CH3        C2O             *C3            
 C3H3,1-propynl  C3H3,2-propynl  C3H4,allene     C3H4,propyne    C3H4,cyclo-    
 C3H5,allyl      C3H6,propylene  C3H6,cyclo-     C3H6O,propylox  C3H6O,acetone  
 C3H6O,propanal  C3H7,n-propyl   C3H7,i-propyl   C3H8            C3H8O,1propanol
 C3H8O,2propanol C3O2            *C4             C4H2,butadiyne  C4H4,1,3-cyclo-
 C4H6,butadiene  C4H6,1butyne    C4H6,2butyne    C4H6,cyclo-     C4H8,1-butene  
 C4H8,cis2-buten C4H8,tr2-butene C4H8,isobutene  C4H8,cyclo-     (CH3COOH)2     
 C4H9,n-butyl    C4H9,i-butyl    C4H9,s-butyl    C4H9,t-butyl    C4H10,n-butane 
 C4H10,isobutane *C5             C5H6,1,3cyclo-  C5H8,cyclo-     C5H10,1-pentene
 C5H10,cyclo-    C5H11,pentyl    C5H11,t-pentyl  C5H12,n-pentane C5H12,i-pentane
 CH3C(CH3)2CH3   C6H2            C6H5,phenyl     C6H5O,phenoxy   C6H6           
 C6H5OH,phenol   C6H10,cyclo-    C6H12,1-hexene  C6H12,cyclo-    C6H13,n-hexyl  
 C6H14,n-hexane  C7H7,benzyl     C7H8            C7H8O,cresol-mx C7H14,1-heptene
 C7H15,n-heptyl  C7H16,n-heptane C7H16,2-methylh C8H8,styrene    C8H10,ethylbenz
 C8H16,1-octene  C8H17,n-octyl   C8H18,n-octane  C8H18,isooctane C9H19,n-nonyl  
 C10H8,naphthale C10H21,n-decyl  C12H9,o-bipheny C12H10,biphenyl HCCO           
 HCHO,formaldehy HCOOH           (HCOOH)2        O3              C(gr)          
 H2O(cr)         H2O(L)         

 NOTE. WEIGHT FRACTION OF FUEL IN TOTAL FUELS AND OF OXIDANT IN TOTAL OXIDANTS





   3    2    3438.995     -15.732      -9.953     -15.740
   3    2    3437.997     -15.734      -9.954     -15.742
   3    2    3437.912     -15.734      -9.954     -15.742
   4    2    3436.320     -15.737      -9.956     -15.744
   4    2    3434.605     -15.740      -9.958     -15.747
   4    2    3434.421     -15.740      -9.958     -15.747
   4    1    3434.420     -15.740      -9.958     -15.747
   5    2    3430.919     -15.746      -9.962     -15.753
   5    2    3427.961     -15.751      -9.965     -15.758
   5    2    3427.603     -15.751      -9.965     -15.758
   5    1    3427.599     -15.751      -9.965     -15.758
   6    2    3424.359     -15.757      -9.969     -15.763
   6    2    3420.182     -15.764      -9.974     -15.770
   6    2    3419.665     -15.765      -9.974     -15.771
   6    1    3419.659     -15.765      -9.974     -15.771
   7    2    3416.537     -15.770      -9.978     -15.776
   7    2    3411.274     -15.779      -9.984     -15.785
   7    2    3410.641     -15.780      -9.984     -15.786
   7    1    3410.633     -15.780      -9.984     -15.786
   8    2    3401.638     -15.795      -9.995     -15.800
   8    2    3395.468     -15.806     -10.002     -15.810
   8    2    3394.825     -15.807     -10.002     -15.811
   8    1    3394.819     -15.807     -10.002     -15.812





              THEORETICAL ROCKET PERFORMANCE ASSUMING EQUILIBRIUM

           COMPOSITION DURING EXPANSION FROM INFINITE AREA COMBUSTOR

 Pin =   580.2 PSIA
 CASE = methalox2      

             REACTANT                    WT FRACTION      ENERGY      TEMP
                                          (SEE NOTE)     KJ/KG-MOL      K  
 FUEL        CH4(L)                       1.0000000    -89233.000    111.643
 OXIDANT     O2(L)                        1.0000000    -12979.000     90.170

 O/F=    3.16000  %FUEL= 24.038462  R,EQ.RATIO= 1.262425  PHI,EQ.RATIO= 1.262425

                 CHAMBER   THROAT     EXIT     EXIT     EXIT     EXIT     EXIT     EXIT
 Pinf/P            1.0000   1.7286   1.0236   1.0349   1.0573   1.0841   1.1155   1.1729
 P, BAR            40.000   23.140   39.077   38.651   37.831   36.896   35.858   34.104
 T, K             3445.37  3275.15  3437.91  3434.42  3427.60  3419.66  3410.63  3394.82
 RHO, KG/CU M    2.9091 0 1.7930 0 2.8497 0 2.8222 0 2.7693 0 2.7087 0 2.6413 0 2.5267 0
 H, KJ/KG        -1645.20 -2374.38 -1677.27 -1692.29 -1721.61 -1755.75 -1794.53 -1862.46
 U, KJ/KG        -3020.19 -3664.96 -3048.52 -3061.79 -3087.70 -3117.86 -3152.14 -3212.17
 G, KJ/KG        -45218.6 -43795.0 -45156.4 -45127.3 -45070.3 -45004.0 -44928.7 -44796.6
 S, KJ/(KG)(K)    12.6470  12.6470  12.6470  12.6470  12.6470  12.6470  12.6470  12.6470

 M, (1/n)          20.834   21.100   20.846   20.851   20.862   20.874   20.888   20.913
 (dLV/dLP)t      -1.03419 -1.02860 -1.03395 -1.03384 -1.03363 -1.03337 -1.03309 -1.03258
 (dLV/dLT)p        1.6254   1.5517   1.6225   1.6212   1.6185   1.6153   1.6117   1.6053
 Cp, KJ/(KG)(K)    6.9919   6.6054   6.9780   6.9714   6.9584   6.9429   6.9250   6.8926
 GAMMAs            1.1320   1.1300   1.1319   1.1318   1.1317   1.1316   1.1315   1.1313
 SON VEL,M/SEC     1247.6   1207.6   1245.8   1245.0   1243.4   1241.5   1239.4   1235.7
 MACH NUMBER        0.000    1.000    0.203    0.246    0.314    0.379    0.441    0.533

 TRANSPORT PROPERTIES (GASES ONLY)
   CONDUCTIVITY IN UNITS OF MILLIWATTS/(CM)(K)

 VISC,MILLIPOISE   1.0953   1.0593   1.0937   1.0930   1.0916   1.0899   1.0880   1.0847

  WITH EQUILIBRIUM REACTIONS

 Cp, KJ/(KG)(K)    6.9919   6.6054   6.9780   6.9714   6.9584   6.9429   6.9250   6.8926
 CONDUCTIVITY     14.8204  13.3847  14.7624  14.7352  14.6816  14.6188  14.5468  14.4189
 PRANDTL NUMBER    0.5167   0.5228   0.5170   0.5171   0.5174   0.5176   0.5179   0.5185

  WITH FROZEN REACTIONS

 Cp, KJ/(KG)(K)    2.3798   2.3669   2.3793   2.3790   2.3785   2.3780   2.3773   2.3761
 CONDUCTIVITY      3.9152   3.7349   3.9074   3.9037   3.8964   3.8880   3.8785   3.8618
 PRANDTL NUMBER    0.6658   0.6713   0.6660   0.6661   0.6663   0.6666   0.6669   0.6674

 PERFORMANCE PARAMETERS

 Ae/At                      1.0000   3.0000   2.5000   2.0000   1.7000   1.5000   1.3000
 CSTAR, M/SEC               1847.4   1847.4   1847.4   1847.4   1847.4   1847.4   1847.4
 CF                         0.6537   0.1371   0.1661   0.2116   0.2545   0.2958   0.3568
 Ivac, M/SEC                2276.3   5667.6   4769.5   3885.3   3367.0   3030.7   2706.8
 Isp, M/SEC                 1207.6    253.3    306.9    390.9    470.2    546.5    659.2


 MOLE FRACTIONS

 *CO              0.20251  0.19786  0.20231  0.20222  0.20204  0.20184  0.20160  0.20118
 *CO2             0.10965  0.11829  0.11002  0.11019  0.11053  0.11093  0.11138  0.11217
 COOH             0.00001  0.00001  0.00001  0.00001  0.00001  0.00001  0.00001  0.00001
 *H               0.02698  0.02303  0.02681  0.02673  0.02657  0.02638  0.02617  0.02581
 HCO              0.00001  0.00001  0.00001  0.00001  0.00001  0.00001  0.00001  0.00001
 HO2              0.00006  0.00004  0.00006  0.00006  0.00006  0.00006  0.00006  0.00005
 *H2              0.10705  0.10413  0.10691  0.10685  0.10673  0.10659  0.10643  0.10615
 H2O              0.47512  0.49303  0.47590  0.47627  0.47699  0.47783  0.47878  0.48045
 H2O2             0.00001  0.00001  0.00001  0.00001  0.00001  0.00001  0.00001  0.00001
 *O               0.00785  0.00575  0.00775  0.00771  0.00762  0.00752  0.00741  0.00721
 *OH              0.05732  0.04726  0.05688  0.05668  0.05628  0.05581  0.05528  0.05435
 *O2              0.01344  0.01059  0.01332  0.01326  0.01315  0.01302  0.01287  0.01261

  * THERMODYNAMIC PROPERTIES FITTED TO 20000.K

    PRODUCTS WHICH WERE CONSIDERED BUT WHOSE MOLE FRACTIONS
    WERE LESS THAN 5.000000E-06 FOR ALL ASSIGNED CONDITIONS

 *C              *CH             CH2             CH3             CH2OH          
 CH3O            CH4             CH3OH           CH3OOH          *C2            
 C2H             C2H2,acetylene  C2H2,vinylidene CH2CO,ketene    O(CH)2O        
 HO(CO)2OH       C2H3,vinyl      CH3CO,acetyl    C2H4            C2H4O,ethylen-o
 CH3CHO,ethanal  CH3COOH         OHCH2COOH       C2H5            C2H6           
 C2H5OH          CH3OCH3         CH3O2CH3        C2O             *C3            
 C3H3,1-propynl  C3H3,2-propynl  C3H4,allene     C3H4,propyne    C3H4,cyclo-    
 C3H5,allyl      C3H6,propylene  C3H6,cyclo-     C3H6O,propylox  C3H6O,acetone  
 C3H6O,propanal  C3H7,n-propyl   C3H7,i-propyl   C3H8            C3H8O,1propanol
 C3H8O,2propanol C3O2            *C4             C4H2,butadiyne  C4H4,1,3-cyclo-
 C4H6,butadiene  C4H6,1butyne    C4H6,2butyne    C4H6,cyclo-     C4H8,1-butene  
 C4H8,cis2-buten C4H8,tr2-butene C4H8,isobutene  C4H8,cyclo-     (CH3COOH)2     
 C4H9,n-butyl    C4H9,i-butyl    C4H9,s-butyl    C4H9,t-butyl    C4H10,n-butane 
 C4H10,isobutane *C5             C5H6,1,3cyclo-  C5H8,cyclo-     C5H10,1-pentene
 C5H10,cyclo-    C5H11,pentyl    C5H11,t-pentyl  C5H12,n-pentane C5H12,i-pentane
 CH3C(CH3)2CH3   C6H2            C6H5,phenyl     C6H5O,phenoxy   C6H6           
 C6H5OH,phenol   C6H10,cyclo-    C6H12,1-hexene  C6H12,cyclo-    C6H13,n-hexyl  
 C6H14,n-hexane  C7H7,benzyl     C7H8            C7H8O,cresol-mx C7H14,1-heptene
 C7H15,n-heptyl  C7H16,n-heptane C7H16,2-methylh C8H8,styrene    C8H10,ethylbenz
 C8H16,1-octene  C8H17,n-octyl   C8H18,n-octane  C8H18,isooctane C9H19,n-nonyl  
 C10H8,naphthale C10H21,n-decyl  C12H9,o-bipheny C12H10,biphenyl HCCO           
 HCHO,formaldehy HCOOH           (HCOOH)2        O3              C(gr)          
 H2O(cr)         H2O(L)         

 NOTE. WEIGHT FRACTION OF FUEL IN TOTAL FUELS AND OF OXIDANT IN TOTAL OXIDANTS





   3    3    3359.563     -15.866     -10.042     -15.871
   3    2    3358.691     -15.868     -10.043     -15.872
   4    4    3149.903     -16.214     -10.289     -16.266
   4    2    3152.565     -16.210     -10.286     -16.261
   5    3    3041.115     -16.383     -10.419     -16.506
   5    2    3048.857     -16.372     -10.410     -16.488
   5    1    3048.911     -16.371     -10.410     -16.488
   6    3    2959.000     -16.500     -10.517     -16.706
   6    3    2975.795     -16.477     -10.497     -16.664
   6    2    2975.952     -16.477     -10.497     -16.664
   7    4    2822.934     -16.665     -10.675     -17.079
   7    3    2845.104     -16.641     -10.650     -17.015
   7    2    2845.244     -16.641     -10.650     -17.014
   8    4    2667.312     -16.787     -10.842     -17.580
   8    2    2674.353     -16.783     -10.835     -17.556





              THEORETICAL ROCKET PERFORMANCE ASSUMING EQUILIBRIUM

           COMPOSITION DURING EXPANSION FROM INFINITE AREA COMBUSTOR

 Pin =   580.2 PSIA
 CASE = methalox2      

             REACTANT                    WT FRACTION      ENERGY      TEMP
                                          (SEE NOTE)     KJ/KG-MOL      K  
 FUEL        CH4(L)                       1.0000000    -89233.000    111.643
 OXIDANT     O2(L)                        1.0000000    -12979.000     90.170

 O/F=    3.16000  %FUEL= 24.038462  R,EQ.RATIO= 1.262425  PHI,EQ.RATIO= 1.262425

                 CHAMBER   THROAT     EXIT     EXIT     EXIT     EXIT     EXIT     EXIT
 Pinf/P            1.0000   1.7286   1.3166   2.6067   3.7201   4.7928   7.5599   13.604
 P, BAR            40.000   23.140   30.380   15.345   10.753   8.3459   5.2911   2.9403
 T, K             3445.37  3275.15  3358.69  3152.56  3048.91  2975.95  2845.24  2674.35
 RHO, KG/CU M    2.9091 0 1.7930 0 2.2812 0 1.2464 0 9.0971-1 7.2700-1 4.8603-1 2.8993-1
 H, KJ/KG        -1645.20 -2374.38 -2017.44 -2892.16 -3321.25 -3616.40 -4126.00 -4743.62
 U, KJ/KG        -3020.19 -3664.96 -3349.20 -4123.33 -4503.22 -4764.40 -5214.63 -5757.78
 G, KJ/KG        -45218.6 -43795.0 -44494.7 -42762.5 -41880.7 -41253.1 -40109.7 -38566.1
 S, KJ/(KG)(K)    12.6470  12.6470  12.6470  12.6470  12.6470  12.6470  12.6470  12.6470

 M, (1/n)          20.834   21.100   20.969   21.290   21.447   21.554   21.731   21.925
 (dLV/dLP)t      -1.03419 -1.02860 -1.03140 -1.02432 -1.02061 -1.01799 -1.01345 -1.00825
 (dLV/dLT)p        1.6254   1.5517   1.5900   1.4883   1.4284   1.3834   1.3000   1.1955
 Cp, KJ/(KG)(K)    6.9919   6.6054   6.8139   6.2279   5.8402   5.5321   4.9241   4.0978
 GAMMAs            1.1320   1.1300   1.1308   1.1294   1.1297   1.1305   1.1336   1.1416
 SON VEL,M/SEC     1247.6   1207.6   1227.2   1179.2   1155.5   1139.2   1110.9   1076.0
 MACH NUMBER        0.000    1.000    0.703    1.339    1.584    1.743    2.005    2.314

 TRANSPORT PROPERTIES (GASES ONLY)
   CONDUCTIVITY IN UNITS OF MILLIWATTS/(CM)(K)

 VISC,MILLIPOISE   1.0953   1.0593   1.0770   1.0330   1.0104  0.99419  0.96465  0.92468

  WITH EQUILIBRIUM REACTIONS

 Cp, KJ/(KG)(K)    6.9919   6.6054   6.8139   6.2279   5.8402   5.5321   4.9241   4.0978
 CONDUCTIVITY     14.8204  13.3847  14.1192  12.2046  11.1211  10.3216   8.8508   6.9813
 PRANDTL NUMBER    0.5167   0.5228   0.5198   0.5271   0.5306   0.5329   0.5367   0.5428

  WITH FROZEN REACTIONS

 Cp, KJ/(KG)(K)    2.3798   2.3669   2.3734   2.3567   2.3473   2.3403   2.3265   2.3060
 CONDUCTIVITY      3.9152   3.7349   3.8235   3.6046   3.4940   3.4158   3.2750   3.0891
 PRANDTL NUMBER    0.6658   0.6713   0.6686   0.6754   0.6788   0.6811   0.6853   0.6903

 PERFORMANCE PARAMETERS

 Ae/At                      1.0000   1.1000   1.1000   1.3000   1.5000   2.0000   3.0000
 CSTAR, M/SEC               1847.4   1847.4   1847.4   1847.4   1847.4   1847.4   1847.4
 CF                         0.6537   0.4671   0.8548   0.9911   1.0748   1.2057   1.3475
 Ivac, M/SEC                2276.3   2406.3   2358.8   2476.5   2563.7   2716.2   2896.7
 Isp, M/SEC                 1207.6    862.8   1579.2   1830.9   1985.5   2227.5   2489.3


 MOLE FRACTIONS

 *CO              0.20251  0.19786  0.20020  0.19427  0.19113  0.18890  0.18499  0.18023
 *CO2             0.10965  0.11829  0.11399  0.12475  0.13024  0.13406  0.14062  0.14831
 COOH             0.00001  0.00001  0.00001  0.00000  0.00000  0.00000  0.00000  0.00000
 *H               0.02698  0.02303  0.02497  0.02017  0.01777  0.01609  0.01314  0.00950
 HCO              0.00001  0.00001  0.00001  0.00000  0.00000  0.00000  0.00000  0.00000
 HO2              0.00006  0.00004  0.00005  0.00002  0.00001  0.00001  0.00001  0.00000
 *H2              0.10705  0.10413  0.10552  0.10227  0.10095  0.10021  0.09941  0.09959
 H2O              0.47512  0.49303  0.48426  0.50569  0.51597  0.52284  0.53402  0.54562
 H2O2             0.00001  0.00001  0.00001  0.00000  0.00000  0.00000  0.00000  0.00000
 *O               0.00785  0.00575  0.00676  0.00438  0.00334  0.00268  0.00170  0.00079
 *OH              0.05732  0.04726  0.05222  0.03997  0.03386  0.02965  0.02247  0.01421
 *O2              0.01344  0.01059  0.01201  0.00848  0.00673  0.00555  0.00364  0.00175

  * THERMODYNAMIC PROPERTIES FITTED TO 20000.K

    PRODUCTS WHICH WERE CONSIDERED BUT WHOSE MOLE FRACTIONS
    WERE LESS THAN 5.000000E-06 FOR ALL ASSIGNED CONDITIONS

 *C              *CH             CH2             CH3             CH2OH          
 CH3O            CH4             CH3OH           CH3OOH          *C2            
 C2H             C2H2,acetylene  C2H2,vinylidene CH2CO,ketene    O(CH)2O        
 HO(CO)2OH       C2H3,vinyl      CH3CO,acetyl    C2H4            C2H4O,ethylen-o
 CH3CHO,ethanal  CH3COOH         OHCH2COOH       C2H5            C2H6           
 C2H5OH          CH3OCH3         CH3O2CH3        C2O             *C3            
 C3H3,1-propynl  C3H3,2-propynl  C3H4,allene     C3H4,propyne    C3H4,cyclo-    
 C3H5,allyl      C3H6,propylene  C3H6,cyclo-     C3H6O,propylox  C3H6O,acetone  
 C3H6O,propanal  C3H7,n-propyl   C3H7,i-propyl   C3H8            C3H8O,1propanol
 C3H8O,2propanol C3O2            *C4             C4H2,butadiyne  C4H4,1,3-cyclo-
 C4H6,butadiene  C4H6,1butyne    C4H6,2butyne    C4H6,cyclo-     C4H8,1-butene  
 C4H8,cis2-buten C4H8,tr2-butene C4H8,isobutene  C4H8,cyclo-     (CH3COOH)2     
 C4H9,n-butyl    C4H9,i-butyl    C4H9,s-butyl    C4H9,t-butyl    C4H10,n-butane 
 C4H10,isobutane *C5             C5H6,1,3cyclo-  C5H8,cyclo-     C5H10,1-pentene
 C5H10,cyclo-    C5H11,pentyl    C5H11,t-pentyl  C5H12,n-pentane C5H12,i-pentane
 CH3C(CH3)2CH3   C6H2            C6H5,phenyl     C6H5O,phenoxy   C6H6           
 C6H5OH,phenol   C6H10,cyclo-    C6H12,1-hexene  C6H12,cyclo-    C6H13,n-hexyl  
 C6H14,n-hexane  C7H7,benzyl     C7H8            C7H8O,cresol-mx C7H14,1-heptene
 C7H15,n-heptyl  C7H16,n-heptane C7H16,2-methylh C8H8,styrene    C8H10,ethylbenz
 C8H16,1-octene  C8H17,n-octyl   C8H18,n-octane  C8H18,isooctane C9H19,n-nonyl  
 C10H8,naphthale C10H21,n-decyl  C12H9,o-bipheny C12H10,biphenyl HCCO           
 HCHO,formaldehy HCOOH           (HCOOH)2        O3              C(gr)          
 H2O(cr)         H2O(L)         

 NOTE. WEIGHT FRACTION OF FUEL IN TOTAL FUELS AND OF OXIDANT IN TOTAL OXIDANTS





   3    4    2560.388     -16.820     -10.945     -17.977
   3    2    2554.646     -16.820     -10.950     -18.000
   4    3    2453.982     -16.807     -11.036     -18.420
   4    2    2460.657     -16.809     -11.031     -18.390
   5    4    2322.311     -16.727     -11.137     -19.039
   5    2    2316.312     -16.721     -11.141     -19.070
   6    3    2200.764     -16.593     -11.219     -19.690
   6    2    2207.229     -16.601     -11.215     -19.654
   7    3    2126.601     -16.483     -11.267     -20.129
   7    2    2120.313     -16.473     -11.271     -20.168
   8    3    2042.306     -16.334     -11.319     -20.672
   8    2    2048.675     -16.347     -11.315     -20.629





              THEORETICAL ROCKET PERFORMANCE ASSUMING EQUILIBRIUM

           COMPOSITION DURING EXPANSION FROM INFINITE AREA COMBUSTOR

 Pin =   580.2 PSIA
 CASE = methalox2      

             REACTANT                    WT FRACTION      ENERGY      TEMP
                                          (SEE NOTE)     KJ/KG-MOL      K  
 FUEL        CH4(L)                       1.0000000    -89233.000    111.643
 OXIDANT     O2(L)                        1.0000000    -12979.000     90.170

 O/F=    3.16000  %FUEL= 24.038462  R,EQ.RATIO= 1.262425  PHI,EQ.RATIO= 1.262425

                 CHAMBER   THROAT     EXIT     EXIT     EXIT     EXIT     EXIT     EXIT
 Pinf/P            1.0000   1.7286   20.255   27.421   43.044   60.100   78.346   97.614
 P, BAR            40.000   23.140   1.9748   1.4587  0.92928  0.66556  0.51055  0.40978
 T, K             3445.37  3275.15  2554.65  2460.66  2316.31  2207.23  2120.31  2048.67
 RHO, KG/CU M    2.9091 0 1.7930 0 2.0482-1 1.5753-1 1.0694-1 8.0497-2 6.4332-2 5.3464-2
 H, KJ/KG        -1645.20 -2374.38 -5137.36 -5423.64 -5828.32 -6111.33 -6326.13 -6497.64
 U, KJ/KG        -3020.19 -3664.96 -6101.51 -6349.64 -6697.30 -6938.14 -7119.75 -7264.09
 G, KJ/KG        -45218.6 -43795.0 -37445.9 -36543.5 -35122.6 -34026.1 -33141.6 -32407.1
 S, KJ/(KG)(K)    12.6470  12.6470  12.6470  12.6470  12.6470  12.6470  12.6470  12.6470

 M, (1/n)          20.834   21.100   22.030   22.094   22.163   22.196   22.214   22.224
 (dLV/dLP)t      -1.03419 -1.02860 -1.00542 -1.00373 -1.00197 -1.00115 -1.00073 -1.00049
 (dLV/dLT)p        1.6254   1.5517   1.1339   1.0952   1.0527   1.0320   1.0208   1.0143
 Cp, KJ/(KG)(K)    6.9919   6.6054   3.5727   3.2242   2.8160   2.6014   2.4766   2.3981
 GAMMAs            1.1320   1.1300   1.1500   1.1578   1.1705   1.1795   1.1859   1.1905
 SON VEL,M/SEC     1247.6   1207.6   1053.0   1035.4   1008.5    987.6    970.1    955.2
 MACH NUMBER        0.000    1.000    2.510    2.655    2.868    3.026    3.154    3.261

 TRANSPORT PROPERTIES (GASES ONLY)
   CONDUCTIVITY IN UNITS OF MILLIWATTS/(CM)(K)

 VISC,MILLIPOISE   1.0953   1.0593  0.89568  0.87233  0.83555  0.80709  0.78402  0.76476

  WITH EQUILIBRIUM REACTIONS

 Cp, KJ/(KG)(K)    6.9919   6.6054   3.5727   3.2242   2.8160   2.6014   2.4766   2.3981
 CONDUCTIVITY     14.8204  13.3847   5.8139   5.0217   4.0394   3.4736   3.1157   2.8726
 PRANDTL NUMBER    0.5167   0.5228   0.5504   0.5601   0.5825   0.6044   0.6232   0.6384

  WITH FROZEN REACTIONS

 Cp, KJ/(KG)(K)    2.3798   2.3669   2.2896   2.2756   2.2518   2.2319   2.2148   2.1998
 CONDUCTIVITY      3.9152   3.7349   2.9578   2.8540   2.6938   2.5721   2.4749   2.3947
 PRANDTL NUMBER    0.6658   0.6713   0.6934   0.6955   0.6985   0.7003   0.7016   0.7025

 PERFORMANCE PARAMETERS

 Ae/At                      1.0000   4.0000   5.0000   7.0000   9.0000   11.000   13.000
 CSTAR, M/SEC               1847.4   1847.4   1847.4   1847.4   1847.4   1847.4   1847.4
 CF                         0.6537   1.4306   1.4880   1.5657   1.6178   1.6562   1.6863
 Ivac, M/SEC                2276.3   3007.6   3085.8   3192.9   3265.3   3319.1   3361.3
 Isp, M/SEC                 1207.6   2642.8   2749.0   2892.4   2988.7   3059.7   3115.3


 MOLE FRACTIONS

 *CO              0.20251  0.19786  0.17719  0.17494  0.17148  0.16868  0.16623  0.16400
 *CO2             0.10965  0.11829  0.15292  0.15613  0.16061  0.16391  0.16663  0.16901
 COOH             0.00001  0.00001  0.00000  0.00000  0.00000  0.00000  0.00000  0.00000
 *H               0.02698  0.02303  0.00719  0.00559  0.00354  0.00236  0.00164  0.00118
 HCO              0.00001  0.00001  0.00000  0.00000  0.00000  0.00000  0.00000  0.00000
 HO2              0.00006  0.00004  0.00000  0.00000  0.00000  0.00000  0.00000  0.00000
 *H2              0.10705  0.10413  0.10066  0.10204  0.10498  0.10778  0.11034  0.11269
 H2O              0.47512  0.49303  0.55119  0.55398  0.55572  0.55526  0.55398  0.55239
 H2O2             0.00001  0.00001  0.00000  0.00000  0.00000  0.00000  0.00000  0.00000
 *O               0.00785  0.00575  0.00040  0.00022  0.00007  0.00003  0.00001  0.00000
 *OH              0.05732  0.04726  0.00954  0.00662  0.00343  0.00192  0.00114  0.00071
 *O2              0.01344  0.01059  0.00090  0.00048  0.00016  0.00006  0.00002  0.00001

  * THERMODYNAMIC PROPERTIES FITTED TO 20000.K

    PRODUCTS WHICH WERE CONSIDERED BUT WHOSE MOLE FRACTIONS
    WERE LESS THAN 5.000000E-06 FOR ALL ASSIGNED CONDITIONS

 *C              *CH             CH2             CH3             CH2OH          
 CH3O            CH4             CH3OH           CH3OOH          *C2            
 C2H             C2H2,acetylene  C2H2,vinylidene CH2CO,ketene    O(CH)2O        
 HO(CO)2OH       C2H3,vinyl      CH3CO,acetyl    C2H4            C2H4O,ethylen-o
 CH3CHO,ethanal  CH3COOH         OHCH2COOH       C2H5            C2H6           
 C2H5OH          CH3OCH3         CH3O2CH3        C2O             *C3            
 C3H3,1-propynl  C3H3,2-propynl  C3H4,allene     C3H4,propyne    C3H4,cyclo-    
 C3H5,allyl      C3H6,propylene  C3H6,cyclo-     C3H6O,propylox  C3H6O,acetone  
 C3H6O,propanal  C3H7,n-propyl   C3H7,i-propyl   C3H8            C3H8O,1propanol
 C3H8O,2propanol C3O2            *C4             C4H2,butadiyne  C4H4,1,3-cyclo-
 C4H6,butadiene  C4H6,1butyne    C4H6,2butyne    C4H6,cyclo-     C4H8,1-butene  
 C4H8,cis2-buten C4H8,tr2-butene C4H8,isobutene  C4H8,cyclo-     (CH3COOH)2     
 C4H9,n-butyl    C4H9,i-butyl    C4H9,s-butyl    C4H9,t-butyl    C4H10,n-butane 
 C4H10,isobutane *C5             C5H6,1,3cyclo-  C5H8,cyclo-     C5H10,1-pentene
 C5H10,cyclo-    C5H11,pentyl    C5H11,t-pentyl  C5H12,n-pentane C5H12,i-pentane
 CH3C(CH3)2CH3   C6H2            C6H5,phenyl     C6H5O,phenoxy   C6H6           
 C6H5OH,phenol   C6H10,cyclo-    C6H12,1-hexene  C6H12,cyclo-    C6H13,n-hexyl  
 C6H14,n-hexane  C7H7,benzyl     C7H8            C7H8O,cresol-mx C7H14,1-heptene
 C7H15,n-heptyl  C7H16,n-heptane C7H16,2-methylh C8H8,styrene    C8H10,ethylbenz
 C8H16,1-octene  C8H17,n-octyl   C8H18,n-octane  C8H18,isooctane C9H19,n-nonyl  
 C10H8,naphthale C10H21,n-decyl  C12H9,o-bipheny C12H10,biphenyl HCCO           
 HCHO,formaldehy HCOOH           (HCOOH)2        O3              C(gr)          
 H2O(cr)         H2O(L)         

 NOTE. WEIGHT FRACTION OF FUEL IN TOTAL FUELS AND OF OXIDANT IN TOTAL OXIDANTS





   3    3    1994.386     -16.238     -11.347     -21.002
   3    2    1988.153     -16.224     -11.351     -21.047
   4    3    2154.487     -16.527     -11.249     -19.960
   4    2    2161.517     -16.537     -11.245     -19.919





              THEORETICAL ROCKET PERFORMANCE ASSUMING EQUILIBRIUM

           COMPOSITION DURING EXPANSION FROM INFINITE AREA COMBUSTOR

 Pin =   580.2 PSIA
 CASE = methalox2      

             REACTANT                    WT FRACTION      ENERGY      TEMP
                                          (SEE NOTE)     KJ/KG-MOL      K  
 FUEL        CH4(L)                       1.0000000    -89233.000    111.643
 OXIDANT     O2(L)                        1.0000000    -12979.000     90.170

 O/F=    3.16000  %FUEL= 24.038462  R,EQ.RATIO= 1.262425  PHI,EQ.RATIO= 1.262425

                 CHAMBER   THROAT     EXIT     EXIT
 Pinf/P            1.0000   1.7286   117.78   69.086
 P, BAR            40.000   23.140  0.33963  0.57899
 T, K             3445.37  3275.15  1988.15  2161.52
 RHO, KG/CU M    2.9091 0 1.7930 0 4.5673-2 7.1540-2
 H, KJ/KG        -1645.20 -2374.38 -6639.41 -6225.32
 U, KJ/KG        -3020.19 -3664.96 -7383.00 -7034.64
 G, KJ/KG        -45218.6 -43795.0 -31783.5 -33561.9
 S, KJ/(KG)(K)    12.6470  12.6470  12.6470  12.6470

 M, (1/n)          20.834   21.100   22.231   22.206
 (dLV/dLP)t      -1.03419 -1.02860 -1.00034 -1.00091
 (dLV/dLT)p        1.6254   1.5517   1.0102   1.0256
 Cp, KJ/(KG)(K)    6.9919   6.6054   2.3455   2.5313
 GAMMAs            1.1320   1.1300   1.1939   1.1830
 SON VEL,M/SEC     1247.6   1207.6    942.2    978.5
 MACH NUMBER        0.000    1.000    3.354    3.093

 TRANSPORT PROPERTIES (GASES ONLY)
   CONDUCTIVITY IN UNITS OF MILLIWATTS/(CM)(K)

 VISC,MILLIPOISE   1.0953   1.0593  0.74831  0.79500

  WITH EQUILIBRIUM REACTIONS

 Cp, KJ/(KG)(K)    6.9919   6.6054   2.3455   2.5313
 CONDUCTIVITY     14.8204  13.3847   2.6983   3.2760
 PRANDTL NUMBER    0.5167   0.5228   0.6505   0.6143

  WITH FROZEN REACTIONS

 Cp, KJ/(KG)(K)    2.3798   2.3669   2.1865   2.2230
 CONDUCTIVITY      3.9152   3.7349   2.3269   2.5210
 PRANDTL NUMBER    0.6658   0.6713   0.7032   0.7010

 PERFORMANCE PARAMETERS

 Ae/At                      1.0000   15.000   10.000
 CSTAR, M/SEC               1847.4   1847.4   1847.4
 CF                         0.6537   1.7108   1.6383
 Ivac, M/SEC                2276.3   3395.7   3294.0
 Isp, M/SEC                 1207.6   3160.4   3026.6


 MOLE FRACTIONS

 *CO              0.20251  0.19786  0.16195  0.16742
 *CO2             0.10965  0.11829  0.17116  0.16532
 COOH             0.00001  0.00001  0.00000  0.00000
 *H               0.02698  0.02303  0.00087  0.00196
 HCO              0.00001  0.00001  0.00000  0.00000
 HO2              0.00006  0.00004  0.00000  0.00000
 *H2              0.10705  0.10413  0.11484  0.10909
 H2O              0.47512  0.49303  0.55071  0.55468
 H2O2             0.00001  0.00001  0.00000  0.00000
 *O               0.00785  0.00575  0.00000  0.00002
 *OH              0.05732  0.04726  0.00046  0.00147
 *O2              0.01344  0.01059  0.00000  0.00004

  * THERMODYNAMIC PROPERTIES FITTED TO 20000.K

    PRODUCTS WHICH WERE CONSIDERED BUT WHOSE MOLE FRACTIONS
    WERE LESS THAN 5.000000E-06 FOR ALL ASSIGNED CONDITIONS

 *C              *CH             CH2             CH3             CH2OH          
 CH3O            CH4             CH3OH           CH3OOH          *C2            
 C2H             C2H2,acetylene  C2H2,vinylidene CH2CO,ketene    O(CH)2O        
 HO(CO)2OH       C2H3,vinyl      CH3CO,acetyl    C2H4            C2H4O,ethylen-o
 CH3CHO,ethanal  CH3COOH         OHCH2COOH       C2H5            C2H6           
 C2H5OH          CH3OCH3         CH3O2CH3        C2O             *C3            
 C3H3,1-propynl  C3H3,2-propynl  C3H4,allene     C3H4,propyne    C3H4,cyclo-    
 C3H5,allyl      C3H6,propylene  C3H6,cyclo-     C3H6O,propylox  C3H6O,acetone  
 C3H6O,propanal  C3H7,n-propyl   C3H7,i-propyl   C3H8            C3H8O,1propanol
 C3H8O,2propanol C3O2            *C4             C4H2,butadiyne  C4H4,1,3-cyclo-
 C4H6,butadiene  C4H6,1butyne    C4H6,2butyne    C4H6,cyclo-     C4H8,1-butene  
 C4H8,cis2-buten C4H8,tr2-butene C4H8,isobutene  C4H8,cyclo-     (CH3COOH)2     
 C4H9,n-butyl    C4H9,i-butyl    C4H9,s-butyl    C4H9,t-butyl    C4H10,n-butane 
 C4H10,isobutane *C5             C5H6,1,3cyclo-  C5H8,cyclo-     C5H10,1-pentene
 C5H10,cyclo-    C5H11,pentyl    C5H11,t-pentyl  C5H12,n-pentane C5H12,i-pentane
 CH3C(CH3)2CH3   C6H2            C6H5,phenyl     C6H5O,phenoxy   C6H6           
 C6H5OH,phenol   C6H10,cyclo-    C6H12,1-hexene  C6H12,cyclo-    C6H13,n-hexyl  
 C6H14,n-hexane  C7H7,benzyl     C7H8            C7H8O,cresol-mx C7H14,1-heptene
 C7H15,n-heptyl  C7H16,n-heptane C7H16,2-methylh C8H8,styrene    C8H10,ethylbenz
 C8H16,1-octene  C8H17,n-octyl   C8H18,n-octane  C8H18,isooctane C9H19,n-nonyl  
 C10H8,naphthale C10H21,n-decyl  C12H9,o-bipheny C12H10,biphenyl HCCO           
 HCHO,formaldehy HCOOH           (HCOOH)2        O3              C(gr)          
 H2O(cr)         H2O(L)         

 NOTE. WEIGHT FRACTION OF FUEL IN TOTAL FUELS AND OF OXIDANT IN TOTAL OXIDANTS

 WARNING!!  FOR FROZEN PERFORMANCE, SUBSONIC AREA 
 RATIOS WERE OMITTED SINCE nfz IS GREATER THAN 1 (ROCKET)





           THEORETICAL ROCKET PERFORMANCE ASSUMING FROZEN COMPOSITION
                                 AFTER POINT 2

 Pin =   580.2 PSIA
 CASE = methalox2      

             REACTANT                    WT FRACTION      ENERGY      TEMP
                                          (SEE NOTE)     KJ/KG-MOL      K  
 FUEL        CH4(L)                       1.0000000    -89233.000    111.643
 OXIDANT     O2(L)                        1.0000000    -12979.000     90.170

 O/F=    3.16000  %FUEL= 24.038462  R,EQ.RATIO= 1.262425  PHI,EQ.RATIO= 1.262425

                 CHAMBER   THROAT     EXIT     EXIT     EXIT     EXIT     EXIT     EXIT
 Pinf/P            1.0000   1.7286   2.7501   3.9924   5.2089   8.4065   15.567   23.594
 P, BAR            40.000   23.140   14.545   10.019   7.6792   4.7582   2.5696   1.6953
 T, K             3445.37  3275.15  3030.33  2845.40  2719.42  2504.55  2248.89  2088.67
 RHO, KG/CU M    2.9091 0 1.7930 0 1.2180 0 8.9356-1 7.1661-1 4.8212-1 2.8996-1 2.0598-1
 H, KJ/KG        -1645.20 -2374.38 -2950.96 -3382.38 -3673.94 -4166.35 -4742.94 -5098.21
 U, KJ/KG        -3020.19 -3664.96 -4145.08 -4503.61 -4745.53 -5153.28 -5629.12 -5921.26
 G, KJ/KG        -45218.6 -43795.0 -41275.5 -39368.0 -38066.3 -35841.3 -33184.5 -31513.6
 S, KJ/(KG)(K)    12.6470  12.6470  12.6470  12.6470  12.6470  12.6470  12.6470  12.6470

 M, (1/n)          20.834   21.100   21.100   21.100   21.100   21.100   21.100   21.100
 Cp, KJ/(KG)(K)    6.9919   6.6054   2.3429   2.3222   2.3064   2.2761   2.2330   2.2013
 GAMMAs            1.1320   1.1300   1.2022   1.2044   1.2061   1.2094   1.2143   1.2180
 SON VEL,M/SEC     1247.6   1207.6   1198.1   1162.1   1136.8   1092.5   1037.3   1001.3
 MACH NUMBER        0.000    1.000    1.349    1.604    1.772    2.055    2.399    2.625

 TRANSPORT PROPERTIES (GASES ONLY)
   CONDUCTIVITY IN UNITS OF MILLIWATTS/(CM)(K)

 VISC,MILLIPOISE   1.0953   1.0593   1.0014  0.95657  0.92548  0.87128  0.80465  0.76154

  WITH FROZEN REACTIONS

 Cp, KJ/(KG)(K)    2.3798   2.3669   2.3429   2.3222   2.3064   2.2761   2.2330   2.2013
 CONDUCTIVITY      3.9152   3.7349   3.4787   3.2804   3.1430   2.9039   2.6118   2.4245
 PRANDTL NUMBER    0.6658   0.6713   0.6744   0.6771   0.6792   0.6829   0.6880   0.6914

 PERFORMANCE PARAMETERS

 Ae/At                      1.0000   1.1000   1.3000   1.5000   2.0000   3.0000   4.0000
 CSTAR, M/SEC               1847.4   1847.4   1847.4   1847.4   1847.4   1847.4   1847.4
 CF                         0.6537   0.8748   1.0090   1.0904   1.2155   1.3474   1.4225
 Ivac, M/SEC                2276.3   2354.9   2465.5   2546.3   2685.0   2845.1   2941.1
 Isp, M/SEC                 1207.6   1616.0   1864.0   2014.3   2245.5   2489.1   2627.9

 MOLE FRACTIONS

 *CO             0.19786   *CO2            0.11829   COOH            0.00001
 *H              0.02303   HCO             0.00001   HO2             0.00004
 *H2             0.10413   H2O             0.49303   H2O2            0.00001
 *O              0.00575   *OH             0.04726   *O2             0.01059

  * THERMODYNAMIC PROPERTIES FITTED TO 20000.K

    PRODUCTS WHICH WERE CONSIDERED BUT WHOSE MOLE FRACTIONS
    WERE LESS THAN 5.000000E-06 FOR ALL ASSIGNED CONDITIONS

 *C              *CH             CH2             CH3             CH2OH          
 CH3O            CH4             CH3OH           CH3OOH          *C2            
 C2H             C2H2,acetylene  C2H2,vinylidene CH2CO,ketene    O(CH)2O        
 HO(CO)2OH       C2H3,vinyl      CH3CO,acetyl    C2H4            C2H4O,ethylen-o
 CH3CHO,ethanal  CH3COOH         OHCH2COOH       C2H5            C2H6           
 C2H5OH          CH3OCH3         CH3O2CH3        C2O             *C3            
 C3H3,1-propynl  C3H3,2-propynl  C3H4,allene     C3H4,propyne    C3H4,cyclo-    
 C3H5,allyl      C3H6,propylene  C3H6,cyclo-     C3H6O,propylox  C3H6O,acetone  
 C3H6O,propanal  C3H7,n-propyl   C3H7,i-propyl   C3H8            C3H8O,1propanol
 C3H8O,2propanol C3O2            *C4             C4H2,butadiyne  C4H4,1,3-cyclo-
 C4H6,butadiene  C4H6,1butyne    C4H6,2butyne    C4H6,cyclo-     C4H8,1-butene  
 C4H8,cis2-buten C4H8,tr2-butene C4H8,isobutene  C4H8,cyclo-     (CH3COOH)2     
 C4H9,n-butyl    C4H9,i-butyl    C4H9,s-butyl    C4H9,t-butyl    C4H10,n-butane 
 C4H10,isobutane *C5             C5H6,1,3cyclo-  C5H8,cyclo-     C5H10,1-pentene
 C5H10,cyclo-    C5H11,pentyl    C5H11,t-pentyl  C5H12,n-pentane C5H12,i-pentane
 CH3C(CH3)2CH3   C6H2            C6H5,phenyl     C6H5O,phenoxy   C6H6           
 C6H5OH,phenol   C6H10,cyclo-    C6H12,1-hexene  C6H12,cyclo-    C6H13,n-hexyl  
 C6H14,n-hexane  C7H7,benzyl     C7H8            C7H8O,cresol-mx C7H14,1-heptene
 C7H15,n-heptyl  C7H16,n-heptane C7H16,2-methylh C8H8,styrene    C8H10,ethylbenz
 C8H16,1-octene  C8H17,n-octyl   C8H18,n-octane  C8H18,isooctane C9H19,n-nonyl  
 C10H8,naphthale C10H21,n-decyl  C12H9,o-bipheny C12H10,biphenyl HCCO           
 HCHO,formaldehy HCOOH           (HCOOH)2        O3              C(gr)          
 H2O(cr)         H2O(L)         

 NOTE. WEIGHT FRACTION OF FUEL IN TOTAL FUELS AND OF OXIDANT IN TOTAL OXIDANTS





           THEORETICAL ROCKET PERFORMANCE ASSUMING FROZEN COMPOSITION
                                 AFTER POINT 2

 Pin =   580.2 PSIA
 CASE = methalox2      

             REACTANT                    WT FRACTION      ENERGY      TEMP
                                          (SEE NOTE)     KJ/KG-MOL      K  
 FUEL        CH4(L)                       1.0000000    -89233.000    111.643
 OXIDANT     O2(L)                        1.0000000    -12979.000     90.170

 O/F=    3.16000  %FUEL= 24.038462  R,EQ.RATIO= 1.262425  PHI,EQ.RATIO= 1.262425

                 CHAMBER   THROAT     EXIT     EXIT     EXIT     EXIT     EXIT     EXIT
 Pinf/P            1.0000   1.7286   32.334   51.560   72.705   95.453   119.59   144.97
 P, BAR            40.000   23.140   1.2371  0.77580  0.55017  0.41905  0.33447  0.27592
 T, K             3445.37  3275.15  1973.47  1812.16  1700.06  1615.12  1547.25  1491.05
 RHO, KG/CU M    2.9091 0 1.7930 0 1.5908-1 1.0864-1 8.2125-2 6.5843-2 5.4858-2 4.6960-2
 H, KJ/KG        -1645.20 -2374.38 -5350.37 -5698.23 -5935.99 -6113.77 -6254.23 -6369.42
 U, KJ/KG        -3020.19 -3664.96 -6128.02 -6412.32 -6605.90 -6750.21 -6863.93 -6956.97
 G, KJ/KG        -45218.6 -43795.0 -30308.8 -28616.5 -27436.6 -26540.1 -25822.3 -25226.7
 S, KJ/(KG)(K)    12.6470  12.6470  12.6470  12.6470  12.6470  12.6470  12.6470  12.6470

 M, (1/n)          20.834   21.100   21.100   21.100   21.100   21.100   21.100   21.100
 Cp, KJ/(KG)(K)    6.9919   6.6054   2.1759   2.1362   2.1054   2.0802   2.0588   2.0402
 GAMMAs            1.1320   1.1300   1.2211   1.2262   1.2303   1.2337   1.2367   1.2394
 SON VEL,M/SEC     1247.6   1207.6    974.5    935.7    907.8    886.1    868.3    853.3
 MACH NUMBER        0.000    1.000    2.793    3.043    3.227    3.374    3.496    3.602

 TRANSPORT PROPERTIES (GASES ONLY)
   CONDUCTIVITY IN UNITS OF MILLIWATTS/(CM)(K)

 VISC,MILLIPOISE   1.0953   1.0593  0.72981  0.68426  0.65173  0.62656  0.60610  0.58890

  WITH FROZEN REACTIONS

 Cp, KJ/(KG)(K)    2.3798   2.3669   2.1759   2.1362   2.1054   2.0802   2.0588   2.0402
 CONDUCTIVITY      3.9152   3.7349   2.2878   2.0940   1.9576   1.8536   1.7702   1.7008
 PRANDTL NUMBER    0.6658   0.6713   0.6941   0.6981   0.7009   0.7031   0.7049   0.7064

 PERFORMANCE PARAMETERS

 Ae/At                      1.0000   5.0000   7.0000   9.0000   11.000   13.000   15.000
 CSTAR, M/SEC               1847.4   1847.4   1847.4   1847.4   1847.4   1847.4   1847.4
 CF                         0.6537   1.4735   1.5412   1.5857   1.6182   1.6435   1.6639
 Ivac, M/SEC                2276.3   3007.9   3097.9   3158.1   3202.4   3236.9   3265.0
 Isp, M/SEC                 1207.6   2722.2   2847.1   2929.4   2989.5   3036.1   3073.8

 MOLE FRACTIONS

 *CO             0.19786   *CO2            0.11829   COOH            0.00001
 *H              0.02303   HCO             0.00001   HO2             0.00004
 *H2             0.10413   H2O             0.49303   H2O2            0.00001
 *O              0.00575   *OH             0.04726   *O2             0.01059

  * THERMODYNAMIC PROPERTIES FITTED TO 20000.K

    PRODUCTS WHICH WERE CONSIDERED BUT WHOSE MOLE FRACTIONS
    WERE LESS THAN 5.000000E-06 FOR ALL ASSIGNED CONDITIONS

 *C              *CH             CH2             CH3             CH2OH          
 CH3O            CH4             CH3OH           CH3OOH          *C2            
 C2H             C2H2,acetylene  C2H2,vinylidene CH2CO,ketene    O(CH)2O        
 HO(CO)2OH       C2H3,vinyl      CH3CO,acetyl    C2H4            C2H4O,ethylen-o
 CH3CHO,ethanal  CH3COOH         OHCH2COOH       C2H5            C2H6           
 C2H5OH          CH3OCH3         CH3O2CH3        C2O             *C3            
 C3H3,1-propynl  C3H3,2-propynl  C3H4,allene     C3H4,propyne    C3H4,cyclo-    
 C3H5,allyl      C3H6,propylene  C3H6,cyclo-     C3H6O,propylox  C3H6O,acetone  
 C3H6O,propanal  C3H7,n-propyl   C3H7,i-propyl   C3H8            C3H8O,1propanol
 C3H8O,2propanol C3O2            *C4             C4H2,butadiyne  C4H4,1,3-cyclo-
 C4H6,butadiene  C4H6,1butyne    C4H6,2butyne    C4H6,cyclo-     C4H8,1-butene  
 C4H8,cis2-buten C4H8,tr2-butene C4H8,isobutene  C4H8,cyclo-     (CH3COOH)2     
 C4H9,n-butyl    C4H9,i-butyl    C4H9,s-butyl    C4H9,t-butyl    C4H10,n-butane 
 C4H10,isobutane *C5             C5H6,1,3cyclo-  C5H8,cyclo-     C5H10,1-pentene
 C5H10,cyclo-    C5H11,pentyl    C5H11,t-pentyl  C5H12,n-pentane C5H12,i-pentane
 CH3C(CH3)2CH3   C6H2            C6H5,phenyl     C6H5O,phenoxy   C6H6           
 C6H5OH,phenol   C6H10,cyclo-    C6H12,1-hexene  C6H12,cyclo-    C6H13,n-hexyl  
 C6H14,n-hexane  C7H7,benzyl     C7H8            C7H8O,cresol-mx C7H14,1-heptene
 C7H15,n-heptyl  C7H16,n-heptane C7H16,2-methylh C8H8,styrene    C8H10,ethylbenz
 C8H16,1-octene  C8H17,n-octyl   C8H18,n-octane  C8H18,isooctane C9H19,n-nonyl  
 C10H8,naphthale C10H21,n-decyl  C12H9,o-bipheny C12H10,biphenyl HCCO           
 HCHO,formaldehy HCOOH           (HCOOH)2        O3              C(gr)          
 H2O(cr)         H2O(L)         

 NOTE. WEIGHT FRACTION OF FUEL IN TOTAL FUELS AND OF OXIDANT IN TOTAL OXIDANTS





           THEORETICAL ROCKET PERFORMANCE ASSUMING FROZEN COMPOSITION
                                 AFTER POINT 2

 Pin =   580.2 PSIA
 CASE = methalox2      

             REACTANT                    WT FRACTION      ENERGY      TEMP
                                          (SEE NOTE)     KJ/KG-MOL      K  
 FUEL        CH4(L)                       1.0000000    -89233.000    111.643
 OXIDANT     O2(L)                        1.0000000    -12979.000     90.170

 O/F=    3.16000  %FUEL= 24.038462  R,EQ.RATIO= 1.262425  PHI,EQ.RATIO= 1.262425

                 CHAMBER   THROAT     EXIT
 Pinf/P            1.0000   1.7286   83.894
 P, BAR            40.000   23.140  0.47679
 T, K             3445.37  3275.15  1654.98
 RHO, KG/CU M    2.9091 0 1.7930 0 7.3111-2
 H, KJ/KG        -1645.20 -2374.38 -6030.61
 U, KJ/KG        -3020.19 -3664.96 -6682.76
 G, KJ/KG        -45218.6 -43795.0 -26961.1
 S, KJ/(KG)(K)    12.6470  12.6470  12.6470

 M, (1/n)          20.834   21.100   21.100
 Cp, KJ/(KG)(K)    6.9919   6.6054   2.0922
 GAMMAs            1.1320   1.1300   1.2320
 SON VEL,M/SEC     1247.6   1207.6    896.4
 MACH NUMBER        0.000    1.000    3.304

 TRANSPORT PROPERTIES (GASES ONLY)
   CONDUCTIVITY IN UNITS OF MILLIWATTS/(CM)(K)

 VISC,MILLIPOISE   1.0953   1.0593  0.63843

  WITH FROZEN REACTIONS

 Cp, KJ/(KG)(K)    2.3798   2.3669   2.0922
 CONDUCTIVITY      3.9152   3.7349   1.9025
 PRANDTL NUMBER    0.6658   0.6713   0.7021

 PERFORMANCE PARAMETERS

 Ae/At                      1.0000   10.000
 CSTAR, M/SEC               1847.4   1847.4
 CF                         0.6537   1.6031
 Ivac, M/SEC                2276.3   3181.8
 Isp, M/SEC                 1207.6   2961.6

 MOLE FRACTIONS

 *CO             0.19786   *CO2            0.11829   COOH            0.00001
 *H              0.02303   HCO             0.00001   HO2             0.00004
 *H2             0.10413   H2O             0.49303   H2O2            0.00001
 *O              0.00575   *OH             0.04726   *O2             0.01059

  * THERMODYNAMIC PROPERTIES FITTED TO 20000.K

    PRODUCTS WHICH WERE CONSIDERED BUT WHOSE MOLE FRACTIONS
    WERE LESS THAN 5.000000E-06 FOR ALL ASSIGNED CONDITIONS

 *C              *CH             CH2             CH3             CH2OH          
 CH3O            CH4             CH3OH           CH3OOH          *C2            
 C2H             C2H2,acetylene  C2H2,vinylidene CH2CO,ketene    O(CH)2O        
 HO(CO)2OH       C2H3,vinyl      CH3CO,acetyl    C2H4            C2H4O,ethylen-o
 CH3CHO,ethanal  CH3COOH         OHCH2COOH       C2H5            C2H6           
 C2H5OH          CH3OCH3         CH3O2CH3        C2O             *C3            
 C3H3,1-propynl  C3H3,2-propynl  C3H4,allene     C3H4,propyne    C3H4,cyclo-    
 C3H5,allyl      C3H6,propylene  C3H6,cyclo-     C3H6O,propylox  C3H6O,acetone  
 C3H6O,propanal  C3H7,n-propyl   C3H7,i-propyl   C3H8            C3H8O,1propanol
 C3H8O,2propanol C3O2            *C4             C4H2,butadiyne  C4H4,1,3-cyclo-
 C4H6,butadiene  C4H6,1butyne    C4H6,2butyne    C4H6,cyclo-     C4H8,1-butene  
 C4H8,cis2-buten C4H8,tr2-butene C4H8,isobutene  C4H8,cyclo-     (CH3COOH)2     
 C4H9,n-butyl    C4H9,i-butyl    C4H9,s-butyl    C4H9,t-butyl    C4H10,n-butane 
 C4H10,isobutane *C5             C5H6,1,3cyclo-  C5H8,cyclo-     C5H10,1-pentene
 C5H10,cyclo-    C5H11,pentyl    C5H11,t-pentyl  C5H12,n-pentane C5H12,i-pentane
 CH3C(CH3)2CH3   C6H2            C6H5,phenyl     C6H5O,phenoxy   C6H6           
 C6H5OH,phenol   C6H10,cyclo-    C6H12,1-hexene  C6H12,cyclo-    C6H13,n-hexyl  
 C6H14,n-hexane  C7H7,benzyl     C7H8            C7H8O,cresol-mx C7H14,1-heptene
 C7H15,n-heptyl  C7H16,n-heptane C7H16,2-methylh C8H8,styrene    C8H10,ethylbenz
 C8H16,1-octene  C8H17,n-octyl   C8H18,n-octane  C8H18,isooctane C9H19,n-nonyl  
 C10H8,naphthale C10H21,n-decyl  C12H9,o-bipheny C12H10,biphenyl HCCO           
 HCHO,formaldehy HCOOH           (HCOOH)2        O3              C(gr)          
 H2O(cr)         H2O(L)         

 NOTE. WEIGHT FRACTION OF FUEL IN TOTAL FUELS AND OF OXIDANT IN TOTAL OXIDANTS



